data/mat/ieee3k.m
function mpc = ieee3k

%ieee3k MATPOWER case generated from D:/codex/elec_power_flow/hybrid_power_system_analysis/data/model/ac/ieee3k.e

% Auto-generated by scripts/generate_matpower_cases.py.

% ZIP loads are exported as static P/Q at V=1; zero-impedance ties are bus-collapsed.

mpc.version = '2';

mpc.baseMVA = 100;

mpc.bus = [
	1	1	900	490	0	0	1	1.0284	5.95	115	1	1.2	0.8;
	2	1	56.00000000000001	15	0	0	1	1.0354	7.74	115	1	1.2	0.8;
	3	1	20	0	0	0	1	0.9971	6.639999998000001	230	1	1.2	0.8;
	4	1	0	0	0	0	1	1.0308	4.710000000000001	345	1	1.2	0.8;
	5	1	353	130	0	0	1	1.0191	4.68	115	1	1.2	0.8;
	6	1	120	41	0	0	1	1.0312	6.989999999	115	1	1.2	0.8;
	7	1	0	0	0	0	1	0.9933999999999999	6.19	230	1	1.2	0.8;
	8	2	63	14	0	0	1	1.0153	2.4	115	1	1.2	0.8;
	9	1	96	43	0	0	1	1.0034	2.85	115	1	1.2	0.8;
	10	2	153	33	0	0	1	1.0205	1.35	230	1	1.2	0.8;
	11	1	83	21	0	0	1	1.0057	2.46	115	1	1.2	0.8;
	12	1	0	0	0	0	1	0.9974	5.21	230	1	1.2	0.8;
	13	1	57.99999999999999	10	0	0	1	0.9977	-0.55	115	1	1.2	0.8;
	14	1	160	60	0	0	1	0.9991	-4.81	115	1	1.2	0.8;
	15	1	126.7	23	0	0	1	1.0343	-8.589999997	115	1	1.2	0.8;
	16	1	0	0	0	0	1	1.0315	-2.65	345	1	1.2	0.8;
	17	1	561	220	0	0	1	1.0649	-13.1	115	1	1.2	0.8;
	18	1	0	0	0	0	1	0.9820000000000001	1.08	230	1	1.2	0.8;
	19	2	605	120	0	0	1	1.001	-2.46	115	1	1.2	0.8;
	20	1	77	1	0	0	1	0.9752	1.62	230	1	1.2	0.8;
	21	1	81	23	0	0	1	0.9963	-1.97	115	1	1.2	0.8;
	22	1	21	7.000000000000001	0	0	1	1.0501	3.94	115	1	1.2	0.8;
	23	1	0	0	0	0	1	1.0057	6.020000002	230	1	1.2	0.8;
	24	1	45	12	0	0	1	1.0234	1.44	115	1	1.2	0.8;
	25	1	28	9	0	0	1	0.9986	-1.73	115	1	1.2	0.8;
	26	1	69	13	0	0	1	0.975	-4.9	115	1	1.2	0.8;
	27	1	55.00000000000001	6	0	0	1	1.0244	-12.02	115	1	1.2	0.8;
	28	1	0	0	0	0	1	1.0414	-7.94	345	1	1.2	0.8;
	29	1	0	0	0	0	1	0.9757	-25.72	115	1	1.2	0.8;
	30	1	0	0	0	0	1	1.0011	-22.59	230	1	1.2	0.8;
	31	1	85	32	0	0	1	1.0201	-11.23	115	1	1.2	0.8;
	32	1	155	18	0	0	1	1.0202	-12.56	115	1	1.2	0.8;
	33	1	0	0	0	0	1	1.0535	-5.809999998000001	345	1	1.2	0.8;
	34	1	46	-21	0	0	1	1.0216	-12.78	115	1	1.2	0.8;
	35	1	86	0	0	0	1	1.0292	-10.45	115	1	1.2	0.8;
	36	1	0	0	0	0	1	1.0448	-7.439999997000001	345	1	1.2	0.8;
	37	1	39	9	0	0	1	1.0006	-16.79	115	1	1.2	0.8;
	38	1	195	29	0	0	1	1.0086	-17.47	115	1	1.2	0.8;
	39	1	0	0	0	0	1	1.0215	-14.74	230	1	1.2	0.8;
	40	1	0	0	0	0	1	1.0344	-11.75	345	1	1.2	0.8;
	41	1	57.99999999999999	11.8	0	0	1	0.9777	-23.17	115	1	1.2	0.8;
	42	1	41	19	0	0	1	1.0019	-16.09	115	1	1.2	0.8;
	43	1	92	26	0	0	1	1.0475	-2.95	115	1	1.2	0.8;
	44	1	-5	5	0	0	1	1.0253	-8.149999998	115	1	1.2	0.8;
	45	1	61	28	0	0	1	0.9979	-11.86	115	1	1.2	0.8;
	46	1	69	3	0	0	1	0.9958999999999999	-17.6	115	1	1.2	0.8;
	47	1	10	1	0	0	1	1.005	-16.25	115	1	1.2	0.8;
	48	1	22	10	0	0	1	1.015	-12.21	115	1	1.2	0.8;
	49	1	98	20	0	0	1	1.0335	-8.000000002	115	1	1.2	0.8;
	50	1	14	1	0	0	1	0.9918	-5.99	115	1	1.2	0.8;
	51	1	218	106	0	0	1	0.9789	-5.29	115	1	1.2	0.8;
	52	1	0	0	0	0	1	1.0246	-9.560000001000002	230	1	1.2	0.8;
	53	1	227	110	0	0	1	0.9905999999999999	-3.470000000000001	115	1	1.2	0.8;
	54	1	0	0	0	0	1	1.016	-1.1	230	1	1.2	0.8;
	55	2	70	30	0	0	1	0.9582999999999999	-17.62	115	1	1.2	0.8;
	56	1	0	0	0	0	1	0.948	-12.97	230	1	1.2	0.8;
	57	1	0	0	0	0	1	0.9630000000000001	-25.66	115	1	1.2	0.8;
	58	1	56.00000000000001	20	0	0	1	0.9513	-35.16	115	1	1.2	0.8;
	59	1	116	38	0	0	1	0.9793000000000001	-29.88	115	1	1.2	0.8;
	60	1	57.00000000000001	19	0	0	1	0.9696	-27.48	115	1	1.2	0.8;
	61	1	224	71	0	0	1	0.9774999999999999	-25.77	115	1	1.2	0.8;
	62	1	0	0	0	0	1	0.9964	-22	230	1	1.2	0.8;
	63	2	208	107	0	0	1	0.9632000000000001	-26.54	115	1	1.2	0.8;
	64	1	74	28	0	0	1	0.9837	-24.94	115	1	1.2	0.8;
	65	1	0	0	0	0	1	0.99	-24.05	115	1	1.2	0.8;
	66	1	48	14	0	0	1	0.9820000000000001	-24.97	115	1	1.2	0.8;
	67	1	28	7.000000000000001	0	0	1	0.9872000000000001	-24.97	115	1	1.2	0.8;
	68	1	0	0	0	0	1	1.034	-18.89	345	1	1.2	0.8;
	69	2	37	13	0	0	1	1.025	-17.16	115	1	1.2	0.8;
	70	1	0	0	0	0	1	0.9872000000000001	-17.68	230	1	1.2	0.8;
	71	1	0	0	0	0	1	0.9909	-14.19	230	1	1.2	0.8;
	72	1	0	0	0	0	1	0.9921	-7.770000001	230	1	1.2	0.8;
	73	1	0	0	0	0	1	1.0151	-20.96	230	1	1.2	0.8;
	74	1	44.2	0	0	0	1	1.0317	-11.13	115	1	1.2	0.8;
	75	1	66	0	0	0	1	1.0272	-11.23	115	1	1.2	0.8;
	76	2	17.4	0	0	0	1	1.052	-9.400000001	115	1	1.2	0.8;
	77	2	15.8	0	0	0	1	1.052	-6.199999999	115	1	1.2	0.8;
	78	1	60.3	0	0	0	1	0.993	-9.419999998	115	1	1.2	0.8;
	79	1	39.90000000000001	0	0	0	1	1.0183	-13.24	115	1	1.2	0.8;
	80	2	66.7	0	0	0	1	1	-14.6	115	1	1.2	0.8;
	81	1	83.5	0	0	0	1	0.9894000000000001	-20.27	115	1	1.2	0.8;
	82	1	0	0	0	0	1	1.006	-14.45	115	1	1.2	0.8;
	83	1	77.8	0	0	0	1	1.0008	-15.23	115	1	1.2	0.8;
	84	1	32	0	0	0	1	1.0288	-12.06	115	1	1.2	0.8;
	85	1	8.6	0	0	0	1	0.9958	-17.33	115	1	1.2	0.8;
	86	1	49.60000000000001	0	0	0	1	1.0223	-12.94	115	1	1.2	0.8;
	87	1	4.6	0	0	0	1	1.0095	-16.03	115	1	1.2	0.8;
	88	2	112.1	0	0	0	1	0.99	-20.26	115	1	1.2	0.8;
	89	1	30.7	0	0	0	1	0.9749	-26.06	115	1	1.2	0.8;
	90	1	63	0	0	0	1	0.973	-24.72	115	1	1.2	0.8;
	91	1	19.6	0	0	0	1	0.9725	-28.69	115	1	1.2	0.8;
	92	1	26.2	0	0	0	1	0.97	-25.38	115	1	1.2	0.8;
	93	1	18.2	0	0	0	1	0.9747	-28.59	115	1	1.2	0.8;
	94	1	0	0	0	0	1	0.9603	-13.57	115	1	1.2	0.8;
	95	1	0	0	0	0	1	1.0249	-12.69	115	1	1.2	0.8;
	96	1	0	0	0	325	1	0.9348	-4.72	115	1	1.2	0.8;
	97	1	14.1	650	0	0	1	0.9298000000000001	-4.120000000000001	115	1	1.2	0.8;
	98	2	0	0	0	0	1	1.0435	5.17	115	1	1.2	0.8;
	99	1	777	215	0	55.00000000000001	1	0.9583999999999999	-8.77	115	1	1.2	0.8;
	100	1	535	55.00000000000001	0	0	1	0.9871	-12.64	115	1	1.2	0.8;
	101	1	229.1	11.8	0	0	1	0.9728	-14.36	115	1	1.2	0.8;
	102	1	78	1.4	0	0	1	1.0006	-17.64	115	1	1.2	0.8;
	103	2	276.4	59.3	0	0	1	1.0233	-13.49	115	1	1.2	0.8;
	104	2	514.8	82.7	0	0	1	1.0103	-18.43	115	1	1.2	0.8;
	105	1	57.9	5.1	0	79.59999999999999	1	0.9978	-12.86	115	1	1.2	0.8;
	106	1	380.8	37	0	0	1	1.0001	-10.52	230	1	1.2	0.8;
	107	1	0	0	0	0	1	1.0024	-4.78	230	1	1.2	0.8;
	108	1	0	0	0	0	1	1.0028	-4.4	230	1	1.2	0.8;
	109	1	0	0	0	0	1	1.0191	5.56	230	1	1.2	0.8;
	110	1	0	0	0	0	1	0.9861	6.060000002	230	1	1.2	0.8;
	111	1	0	0	0	0	1	1.0045	3.04	230	1	1.2	0.8;
	112	1	0	0	0	0	1	1.002	-5.46	230	1	1.2	0.8;
	113	1	0	0	0	0	1	1.022	-8.040000001999999	230	1	1.2	0.8;
	114	1	169.2	41.6	0	0	1	1.0193	-6.759999998	230	1	1.2	0.8;
	115	1	55.2	18.2	0	0	1	1.0476	1.54	230	1	1.2	0.8;
	116	1	273.6	99.8	0	0	1	1.0471	-1.45	230	1	1.2	0.8;
	117	2	1019.2	135.2	0	0	1	1.055	-6.35	230	1	1.2	0.8;
	118	1	595	83.3	0	0	1	1.0117	-3.57	115	1	1.2	0.8;
	119	1	387.7	114.7	0	0	1	1.043	-3.44	230	1	1.2	0.8;
	120	2	145	57.99999999999999	0	0	1	1.051	0.05	230	1	1.2	0.8;
	121	1	56.50000000000001	24.5	0	-4.35	1	1.0155	-2.77	230	1	1.2	0.8;
	122	2	89.5	35.5	0	0	1	1.0435	4.03	230	1	1.2	0.8;
	123	1	0	0	0	0	1	1.016	-0.6999999998000001	230	1	1.2	0.8;
	124	1	24	14	0	0	1	1.0081	-0.16	230	1	1.2	0.8;
	125	2	0	0	0	0	1	1.0528	4.32	230	1	1.2	0.8;
	126	2	0	0	0	0	1	1.0528	8.360000002	230	1	1.2	0.8;
	127	1	63	25	0	7.5	1	1.0577	0.28	230	1	1.2	0.8;
	128	2	0	0	0	0	1	1.0735	5.23	230	1	1.2	0.8;
	129	1	0	0	0	0	1	0.9869	6.340000001	230	1	1.2	0.8;
	130	1	0	0	0	0	1	1.0048	4.13	230	1	1.2	0.8;
	131	2	17	9	0	0	1	1.0535	9.240000001	230	1	1.2	0.8;
	132	2	0	0	0	0	1	1.0435	10.46	230	1	1.2	0.8;
	133	1	70	5	0	34.5	1	0.9662999999999999	-1.8	115	1	1.2	0.8;
	134	1	200	50	0	0	1	1.0177	6.749999999	230	1	1.2	0.8;
	135	2	75	50	0	0	1	0.9630000000000001	5.15	115	1	1.2	0.8;
	136	1	123.5	-24.3	0	0	1	0.9845	-11.93	230	1	1.2	0.8;
	137	1	0	0	0	0	1	0.9986999999999999	-11.4	230	1	1.2	0.8;
	138	1	33	16.5	0	0	1	0.9867	-9.819999997	230	1	1.2	0.8;
	139	1	0	0	0	0	1	0.9998	-12.55	230	1	1.2	0.8;
	140	1	35	15	0	0	1	1.036	8.85	230	1	1.2	0.8;
	141	1	85	24	0	0	1	0.9918	18.5	230	1	1.2	0.8;
	142	1	0	0.4	0	-2.967513536026656	1	1.041	2.91	230	1	1.2	0.8;
	143	1	0	0	0	-213.8053780571069	1	0.9839	9.659999998	230	1	1.2	0.8;
	144	1	0	0	0	0	1	1.0002	26.31	230	1	1.2	0.8;
	145	1	0	0	0	-103	1	0.9973	30.22	230	1	1.2	0.8;
	146	1	299.9	95.7	0	0	1	0.9714999999999999	-6.909999999000001	230	1	1.2	0.8;
	147	1	0	0	0	0	1	1.0024	-4.8	230	1	1.2	0.8;
	148	1	0	0	0	0	1	0.9879000000000001	-6.679999998	230	1	1.2	0.8;
	149	2	481.8000000000001	205	0	0	1	0.9289999999999999	0.09000000001000001	115	1	1.2	0.8;
	150	2	763.6	291.1	0	0	1	0.9829	-9.939999996999999	115	1	1.2	0.8;
	151	1	26.5	0	0	0	1	1.0244	-6.220000001	115	1	1.2	0.8;
	152	1	163.5	43	0	53	1	0.9837	-12.75	115	1	1.2	0.8;
	153	1	0	0	0	0	1	1.0622	-2.69	115	1	1.2	0.8;
	154	1	176	83	0	0	1	0.973	-7.210000001999999	115	1	1.2	0.8;
	155	2	5	4	0	0	1	1.0522	4.67	115	1	1.2	0.8;
	156	2	28	12	0	0	1	1.0077	0.6199999999	115	1	1.2	0.8;
	157	1	427.4	173.6	0	0	1	0.9397	-6.559999998	115	1	1.2	0.8;
	158	1	74	29	0	45	1	0.9699	-9.369999998999999	115	1	1.2	0.8;
	159	1	69.5	49.3	0	0	1	0.9793000000000001	-3.09	115	1	1.2	0.8;
	160	1	73.40000000000001	0	0	0	1	1.0518	-1.33	230	1	1.2	0.8;
	161	1	240.7	89	0	0	1	1.0447	-4.19	230	1	1.2	0.8;
	162	1	40	4	0	0	1	0.9717	7.119999998000001	115	1	1.2	0.8;
	163	1	136.8	16.6	0	0	1	1.0386	-6.850000002	230	1	1.2	0.8;
	164	2	0	0	0	0	1	1.0522	-4.33	230	1	1.2	0.8;
	165	2	59.8	24.3	0	0	1	1.065	2.17	230	1	1.2	0.8;
	166	2	59.8	24.3	0	0	1	1.065	1.4	230	1	1.2	0.8;
	167	1	182.6	43.6	0	0	1	1.0533	-0.7199999998	230	1	1.2	0.8;
	168	1	7.000000000000001	2	0	0	1	0.9974999999999999	-25.84	66	1	1.2	0.8;
	169	2	0	0	0	-150	1	1.0551	-20.62	345	1	1.2	0.8;
	170	2	488.9999999999999	53	0	0	1	1.0435	12.25	230	1	1.2	0.8;
	171	1	800	72	0	0	1	0.9374	-11.18	230	1	1.2	0.8;
	172	1	0	0	0	0	1	0.9897	-26.09	66	1	1.2	0.8;
	173	1	0	0	0	0	1	1.0489	-19.21	345	1	1.2	0.8;
	174	1	0	0	0	0	1	1.0357	-20.79	345	1	1.2	0.8;
	175	1	10	3	0	0	1	0.9695	-25.32	115	1	1.2	0.8;
	176	1	43	14	0	0	1	0.9906999999999999	-23.72	115	1	1.2	0.8;
	177	2	64	21	0	0	1	1.015	-20.58	115	1	1.2	0.8;
	178	1	35	12	0	0	1	0.9528	-26.05	115	1	1.2	0.8;
	179	1	27	12	0	0	1	0.9550000000000001	-25.93	115	1	1.2	0.8;
	180	1	41	14	0	0	1	0.9692	-27.49	66	1	1.2	0.8;
	181	1	38	13	0	0	1	0.9907999999999999	-25.33	66	1	1.2	0.8;
	182	1	42	14	0	0	1	1.0033	-22.35	115	1	1.2	0.8;
	183	1	72	24	0	-0.5442176870748299	1	0.9718	-25.7	66	1	1.2	0.8;
	184	1	0	-5	0	0	1	0.9838000000000001	-26.07	66	1	1.2	0.8;
	185	1	12	2	0	0	1	0.9992	-27.41	66	1	1.2	0.8;
	186	1	-21	-14.2	0	0	1	1.0137	-27.44	66	1	1.2	0.8;
	187	1	7.000000000000001	2	0	0	1	0.9929000000000001	-26.28	66	1	1.2	0.8;
	188	1	38	13	0	0	1	0.9998999999999999	-25.66	66	1	1.2	0.8;
	189	1	0	0	0	0	1	0.9788	-24.22	115	1	1.2	0.8;
	190	1	96	7.000000000000001	0	0	1	1.0017	-23.31	115	1	1.2	0.8;
	191	1	0	0	0	0	1	1.0132	-22.51	138	1	1.2	0.8;
	192	2	0	0	0	0	1	1.01	-11.67	16.5	1	1.2	0.8;
	193	1	22	16	0	0	1	0.9919000000000001	-17.53	138	1	1.2	0.8;
	194	1	47	26	0	0	1	0.9866	-20.23	138	1	1.2	0.8;
	195	1	176	105	0	0	1	0.9750999999999999	-22.53	138	1	1.2	0.8;
	196	1	100	75	0	1	1	1.0215	-22.2	138	1	1.2	0.8;
	197	1	131	96	0	-0.5314061005420343	1	1.0075	-22.63	138	1	1.2	0.8;
	198	1	0	0	0	0	1	1.0554	-21.15	345	1	1.2	0.8;
	199	2	285	100	0	0	1	1.008	-21.73	138	1	1.2	0.8;
	200	2	171	70	0	0	1	1	-22.49	138	1	1.2	0.8;
...
];

mpc.gen = [
	8	0	0	1000000000	-1000000000	1.0153	100	1	1000000000	-1000000000	0	0	0	0	0	0	0	0	0	0	0;
	10	0	0	1000000000	-1000000000	1.0205	100	1	1000000000	-1000000000	0	0	0	0	0	0	0	0	0	0	0;
	19	0	0	1000000000	-1000000000	1.001	100	1	1000000000	-1000000000	0	0	0	0	0	0	0	0	0	0	0;
	55	0	0	1000000000	-1000000000	0.9582999999999999	100	1	1000000000	-1000000000	0	0	0	0	0	0	0	0	0	0	0;
	63	0	0	1000000000	-1000000000	0.9632000000000001	100	1	1000000000	-1000000000	0	0	0	0	0	0	0	0	0	0	0;
	69	375	0	1000000000	-1000000000	1.025	100	1	1000000000	-1000000000	0	0	0	0	0	0	0	0	0	0	0;
	76	155	0	1000000000	-1000000000	1.052	100	1	1000000000	-1000000000	0	0	0	0	0	0	0	0	0	0	0;
	77	290	0	1000000000	-1000000000	1.052	100	1	1000000000	-1000000000	0	0	0	0	0	0	0	0	0	0	0;
	80	68	0	1000000000	-1000000000	1	100	1	1000000000	-1000000000	0	0	0	0	0	0	0	0	0	0	0;
	88	117	0	1000000000	-1000000000	0.99	100	1	1000000000	-1000000000	0	0	0	0	0	0	0	0	0	0	0;
	98	1930	0	1000000000	-1000000000	1.0435	100	1	1000000000	-1000000000	0	0	0	0	0	0	0	0	0	0	0;
	103	240	0	1000000000	-1000000000	1.0233	100	1	1000000000	-1000000000	0	0	0	0	0	0	0	0	0	0	0;
	104	0	0	1000000000	-1000000000	1.0103	100	1	1000000000	-1000000000	0	0	0	0	0	0	0	0	0	0	0;
	117	0	0	1000000000	-1000000000	1.055	100	1	1000000000	-1000000000	0	0	0	0	0	0	0	0	0	0	0;
	120	281	0	1000000000	-1000000000	1.051	100	1	1000000000	-1000000000	0	0	0	0	0	0	0	0	0	0	0;
	122	696	0	1000000000	-1000000000	1.0435	100	1	1000000000	-1000000000	0	0	0	0	0	0	0	0	0	0	0;
	125	84	0	1000000000	-1000000000	1.0528	100	1	1000000000	-1000000000	0	0	0	0	0	0	0	0	0	0	0;
	126	217	0	1000000000	-1000000000	1.0528	100	1	1000000000	-1000000000	0	0	0	0	0	0	0	0	0	0	0;
	128	103	0	1000000000	-1000000000	1.0735	100	1	1000000000	-1000000000	0	0	0	0	0	0	0	0	0	0	0;
	131	372	0	1000000000	-1000000000	1.0535	100	1	1000000000	-1000000000	0	0	0	0	0	0	0	0	0	0	0;
	132	216	0	1000000000	-1000000000	1.0435	100	1	1000000000	-1000000000	0	0	0	0	0	0	0	0	0	0	0;
	135	0	0	1000000000	-1000000000	0.9630000000000001	100	1	1000000000	-1000000000	0	0	0	0	0	0	0	0	0	0	0;
	149	205	0	1000000000	-1000000000	0.9289999999999999	100	1	1000000000	-1000000000	0	0	0	0	0	0	0	0	0	0	0;
	150	0	0	1000000000	-1000000000	0.9829	100	1	1000000000	-1000000000	0	0	0	0	0	0	0	0	0	0	0;
	155	228	0	1000000000	-1000000000	1.0522	100	1	1000000000	-1000000000	0	0	0	0	0	0	0	0	0	0	0;
	156	84	0	1000000000	-1000000000	1.0077	100	1	1000000000	-1000000000	0	0	0	0	0	0	0	0	0	0	0;
	164	200	0	1000000000	-1000000000	1.0522	100	1	1000000000	-1000000000	0	0	0	0	0	0	0	0	0	0	0;
	165	1200	0	1000000000	-1000000000	1.065	100	1	1000000000	-1000000000	0	0	0	0	0	0	0	0	0	0	0;
	166	1200	0	1000000000	-1000000000	1.065	100	1	1000000000	-1000000000	0	0	0	0	0	0	0	0	0	0	0;
	169	475	0	1000000000	-1000000000	1.0551	100	1	1000000000	-1000000000	0	0	0	0	0	0	0	0	0	0	0;
	170	1973	0	1000000000	-1000000000	1.0435	100	1	1000000000	-1000000000	0	0	0	0	0	0	0	0	0	0	0;
	177	424	0	1000000000	-1000000000	1.015	100	1	1000000000	-1000000000	0	0	0	0	0	0	0	0	0	0	0;
	192	272	0	1000000000	-1000000000	1.01	100	1	1000000000	-1000000000	0	0	0	0	0	0	0	0	0	0	0;
	199	100	0	1000000000	-1000000000	1.008	100	1	1000000000	-1000000000	0	0	0	0	0	0	0	0	0	0	0;
	200	450	0	1000000000	-1000000000	1	100	1	1000000000	-1000000000	0	0	0	0	0	0	0	0	0	0	0;
	201	250	0	1000000000	-1000000000	1.05	100	1	1000000000	-1000000000	0	0	0	0	0	0	0	0	0	0	0;
	206	303	0	1000000000	-1000000000	1	100	1	1000000000	-1000000000	0	0	0	0	0	0	0	0	0	0	0;
	209	345	0	1000000000	-1000000000	1.04	100	1	1000000000	-1000000000	0	0	0	0	0	0	0	0	0	0	0;
	212	300	0	1000000000	-1000000000	1	100	1	1000000000	-1000000000	0	0	0	0	0	0	0	0	0	0	0;
	215	600	0	1000000000	-1000000000	1.0165	100	1	1000000000	-1000000000	0	0	0	0	0	0	0	0	0	0	0;
	217	250	0	1000000000	-1000000000	1.01	100	1	1000000000	-1000000000	0	0	0	0	0	0	0	0	0	0	0;
	218	550	0	1000000000	-1000000000	1	100	1	1000000000	-1000000000	0	0	0	0	0	0	0	0	0	0	0;
	220	575.4299999999999	0	1000000000	-1000000000	1.05	100	1	1000000000	-1000000000	0	0	0	0	0	0	0	0	0	0	0;
	221	170	0	1000000000	-1000000000	0.993	100	1	1000000000	-1000000000	0	0	0	0	0	0	0	0	0	0	0;
	222	84	0	1000000000	-1000000000	1.01	100	1	1000000000	-1000000000	0	0	0	0	0	0	0	0	0	0	0;
	247	467	0	1000000000	-1000000000	1.0507	100	1	1000000000	-1000000000	0	0	0	0	0	0	0	0	0	0	0;
	248	623	0	1000000000	-1000000000	1.0507	100	1	1000000000	-1000000000	0	0	0	0	0	0	0	0	0	0	0;
	249	1210	0	1000000000	-1000000000	1.0323	100	1	1000000000	-1000000000	0	0	0	0	0	0	0	0	0	0	0;
	250	234	0	1000000000	-1000000000	1.0145	100	1	1000000000	-1000000000	0	0	0	0	0	0	0	0	0	0	0;
	251	372	0	1000000000	-1000000000	1.0507	100	1	1000000000	-1000000000	0	0	0	0	0	0	0	0	0	0	0;
	252	330	0	1000000000	-1000000000	1.0507	100	1	1000000000	-1000000000	0	0	0	0	0	0	0	0	0	0	0;
	253	185	0	1000000000	-1000000000	1.0507	100	1	1000000000	-1000000000	0	0	0	0	0	0	0	0	0	0	0;
	254	409.9999999999999	0	1000000000	-1000000000	1.029	100	1	1000000000	-1000000000	0	0	0	0	0	0	0	0	0	0	0;
	255	500	0	1000000000	-1000000000	1.05	100	1	1000000000	-1000000000	0	0	0	0	0	0	0	0	0	0	0;
	256	37	0	1000000000	-1000000000	1.0145	100	1	1000000000	-1000000000	0	0	0	0	0	0	0	0	0	0	0;
	257	0	0	1000000000	-1000000000	1.0507	100	1	1000000000	-1000000000	0	0	0	0	0	0	0	0	0	0	0;
	258	45	0	1000000000	-1000000000	0.9966999999999999	100	1	1000000000	-1000000000	0	0	0	0	0	0	0	0	0	0	0;
	259	165	0	1000000000	-1000000000	1.0212	100	1	1000000000	-1000000000	0	0	0	0	0	0	0	0	0	0	0;
	260	400	0	1000000000	-1000000000	1.0145	100	1	1000000000	-1000000000	0	0	0	0	0	0	0	0	0	0	0;
	261	400	0	1000000000	-1000000000	1.0017	100	1	1000000000	-1000000000	0	0	0	0	0	0	0	0	0	0	0;
	262	116	0	1000000000	-1000000000	0.9893	100	1	1000000000	-1000000000	0	0	0	0	0	0	0	0	0	0	0;
	263	1292	0	1000000000	-1000000000	1.0507	100	1	1000000000	-1000000000	0	0	0	0	0	0	0	0	0	0	0;
	264	700	0	1000000000	-1000000000	1.0507	100	1	1000000000	-1000000000	0	0	0	0	0	0	0	0	0	0	0;
	265	553	0	1000000000	-1000000000	1.0145	100	1	1000000000	-1000000000	0	0	0	0	0	0	0	0	0	0	0;
	267	0	0	1000000000	-1000000000	0.9945000000000001	100	1	1000000000	-1000000000	0	0	0	0	0	0	0	0	0	0	0;
	292	0	0	1000000000	-1000000000	1	100	1	1000000000	-1000000000	0	0	0	0	0	0	0	0	0	0	0;
	294	0	0	1000000000	-1000000000	1	100	1	1000000000	-1000000000	0	0	0	0	0	0	0	0	0	0	0;
	295	50	0	1000000000	-1000000000	1	100	1	1000000000	-1000000000	0	0	0	0	0	0	0	0	0	0	0;
	296	8	0	1000000000	-1000000000	1	100	1	1000000000	-1000000000	0	0	0	0	0	0	0	0	0	0	0;
	307	0	0	1000000000	-1000000000	1.0153	100	1	1000000000	-1000000000	0	0	0	0	0	0	0	0	0	0	0;
	309	0	0	1000000000	-1000000000	1.0205	100	1	1000000000	-1000000000	0	0	0	0	0	0	0	0	0	0	0;
	318	0	0	1000000000	-1000000000	1.001	100	1	1000000000	-1000000000	0	0	0	0	0	0	0	0	0	0	0;
	354	0	0	1000000000	-1000000000	0.9582999999999999	100	1	1000000000	-1000000000	0	0	0	0	0	0	0	0	0	0	0;
	362	0	0	1000000000	-1000000000	0.9632000000000001	100	1	1000000000	-1000000000	0	0	0	0	0	0	0	0	0	0	0;
	368	375	0	1000000000	-1000000000	1.025	100	1	1000000000	-1000000000	0	0	0	0	0	0	0	0	0	0	0;
	375	155	0	1000000000	-1000000000	1.052	100	1	1000000000	-1000000000	0	0	0	0	0	0	0	0	0	0	0;
	376	290	0	1000000000	-1000000000	1.052	100	1	1000000000	-1000000000	0	0	0	0	0	0	0	0	0	0	0;
	379	68	0	1000000000	-1000000000	1	100	1	1000000000	-1000000000	0	0	0	0	0	0	0	0	0	0	0;
	387	117	0	1000000000	-1000000000	0.99	100	1	1000000000	-1000000000	0	0	0	0	0	0	0	0	0	0	0;
	397	1930	0	1000000000	-1000000000	1.0435	100	1	1000000000	-1000000000	0	0	0	0	0	0	0	0	0	0	0;
	402	240	0	1000000000	-1000000000	1.0233	100	1	1000000000	-1000000000	0	0	0	0	0	0	0	0	0	0	0;
	403	0	0	1000000000	-1000000000	1.0103	100	1	1000000000	-1000000000	0	0	0	0	0	0	0	0	0	0	0;
	416	0	0	1000000000	-1000000000	1.055	100	1	1000000000	-1000000000	0	0	0	0	0	0	0	0	0	0	0;
	419	281	0	1000000000	-1000000000	1.051	100	1	1000000000	-1000000000	0	0	0	0	0	0	0	0	0	0	0;
	421	696	0	1000000000	-1000000000	1.0435	100	1	1000000000	-1000000000	0	0	0	0	0	0	0	0	0	0	0;
	424	84	0	1000000000	-1000000000	1.0528	100	1	1000000000	-1000000000	0	0	0	0	0	0	0	0	0	0	0;
	425	217	0	1000000000	-1000000000	1.0528	100	1	1000000000	-1000000000	0	0	0	0	0	0	0	0	0	0	0;
	427	103	0	1000000000	-1000000000	1.0735	100	1	1000000000	-1000000000	0	0	0	0	0	0	0	0	0	0	0;
	430	372	0	1000000000	-1000000000	1.0535	100	1	1000000000	-1000000000	0	0	0	0	0	0	0	0	0	0	0;
	431	216	0	1000000000	-1000000000	1.0435	100	1	1000000000	-1000000000	0	0	0	0	0	0	0	0	0	0	0;
	434	0	0	1000000000	-1000000000	0.9630000000000001	100	1	1000000000	-1000000000	0	0	0	0	0	0	0	0	0	0	0;
	448	205	0	1000000000	-1000000000	0.9289999999999999	100	1	1000000000	-1000000000	0	0	0	0	0	0	0	0	0	0	0;
	449	0	0	1000000000	-1000000000	0.9829	100	1	1000000000	-1000000000	0	0	0	0	0	0	0	0	0	0	0;
	454	228	0	1000000000	-1000000000	1.0522	100	1	1000000000	-1000000000	0	0	0	0	0	0	0	0	0	0	0;
	455	84	0	1000000000	-1000000000	1.0077	100	1	1000000000	-1000000000	0	0	0	0	0	0	0	0	0	0	0;
	463	200	0	1000000000	-1000000000	1.0522	100	1	1000000000	-1000000000	0	0	0	0	0	0	0	0	0	0	0;
	464	1200	0	1000000000	-1000000000	1.065	100	1	1000000000	-1000000000	0	0	0	0	0	0	0	0	0	0	0;
	465	1200	0	1000000000	-1000000000	1.065	100	1	1000000000	-1000000000	0	0	0	0	0	0	0	0	0	0	0;
	468	475	0	1000000000	-1000000000	1.0551	100	1	1000000000	-1000000000	0	0	0	0	0	0	0	0	0	0	0;
	469	1973	0	1000000000	-1000000000	1.0435	100	1	1000000000	-1000000000	0	0	0	0	0	0	0	0	0	0	0;
	476	424	0	1000000000	-1000000000	1.015	100	1	1000000000	-1000000000	0	0	0	0	0	0	0	0	0	0	0;
	491	272	0	1000000000	-1000000000	1.01	100	1	1000000000	-1000000000	0	0	0	0	0	0	0	0	0	0	0;
	498	100	0	1000000000	-1000000000	1.008	100	1	1000000000	-1000000000	0	0	0	0	0	0	0	0	0	0	0;
	499	450	0	1000000000	-1000000000	1	100	1	1000000000	-1000000000	0	0	0	0	0	0	0	0	0	0	0;
	500	250	0	1000000000	-1000000000	1.05	100	1	1000000000	-1000000000	0	0	0	0	0	0	0	0	0	0	0;
	505	303	0	1000000000	-1000000000	1	100	1	1000000000	-1000000000	0	0	0	0	0	0	0	0	0	0	0;
	508	345	0	1000000000	-1000000000	1.04	100	1	1000000000	-1000000000	0	0	0	0	0	0	0	0	0	0	0;
	511	300	0	1000000000	-1000000000	1	100	1	1000000000	-1000000000	0	0	0	0	0	0	0	0	0	0	0;
	514	600	0	1000000000	-1000000000	1.0165	100	1	1000000000	-1000000000	0	0	0	0	0	0	0	0	0	0	0;
	516	250	0	1000000000	-1000000000	1.01	100	1	1000000000	-1000000000	0	0	0	0	0	0	0	0	0	0	0;
	517	550	0	1000000000	-1000000000	1	100	1	1000000000	-1000000000	0	0	0	0	0	0	0	0	0	0	0;
	519	575.4299999999999	0	1000000000	-1000000000	1.05	100	1	1000000000	-1000000000	0	0	0	0	0	0	0	0	0	0	0;
	520	170	0	1000000000	-1000000000	0.993	100	1	1000000000	-1000000000	0	0	0	0	0	0	0	0	0	0	0;
	521	84	0	1000000000	-1000000000	1.01	100	1	1000000000	-1000000000	0	0	0	0	0	0	0	0	0	0	0;
	546	467	0	1000000000	-1000000000	1.0507	100	1	1000000000	-1000000000	0	0	0	0	0	0	0	0	0	0	0;
	547	623	0	1000000000	-1000000000	1.0507	100	1	1000000000	-1000000000	0	0	0	0	0	0	0	0	0	0	0;
	548	1210	0	1000000000	-1000000000	1.0323	100	1	1000000000	-1000000000	0	0	0	0	0	0	0	0	0	0	0;
	549	234	0	1000000000	-1000000000	1.0145	100	1	1000000000	-1000000000	0	0	0	0	0	0	0	0	0	0	0;
	550	372	0	1000000000	-1000000000	1.0507	100	1	1000000000	-1000000000	0	0	0	0	0	0	0	0	0	0	0;
	551	330	0	1000000000	-1000000000	1.0507	100	1	1000000000	-1000000000	0	0	0	0	0	0	0	0	0	0	0;
	552	185	0	1000000000	-1000000000	1.0507	100	1	1000000000	-1000000000	0	0	0	0	0	0	0	0	0	0	0;
	553	409.9999999999999	0	1000000000	-1000000000	1.029	100	1	1000000000	-1000000000	0	0	0	0	0	0	0	0	0	0	0;
	554	500	0	1000000000	-1000000000	1.05	100	1	1000000000	-1000000000	0	0	0	0	0	0	0	0	0	0	0;
	555	37	0	1000000000	-1000000000	1.0145	100	1	1000000000	-1000000000	0	0	0	0	0	0	0	0	0	0	0;
	257	0	0	1000000000	-1000000000	1.0507	100	1	1000000000	-1000000000	0	0	0	0	0	0	0	0	0	0	0;
	556	45	0	1000000000	-1000000000	0.9966999999999999	100	1	1000000000	-1000000000	0	0	0	0	0	0	0	0	0	0	0;
	557	165	0	1000000000	-1000000000	1.0212	100	1	1000000000	-1000000000	0	0	0	0	0	0	0	0	0	0	0;
	558	400	0	1000000000	-1000000000	1.0145	100	1	1000000000	-1000000000	0	0	0	0	0	0	0	0	0	0	0;
	559	400	0	1000000000	-1000000000	1.0017	100	1	1000000000	-1000000000	0	0	0	0	0	0	0	0	0	0	0;
	560	116	0	1000000000	-1000000000	0.9893	100	1	1000000000	-1000000000	0	0	0	0	0	0	0	0	0	0	0;
	561	1292	0	1000000000	-1000000000	1.0507	100	1	1000000000	-1000000000	0	0	0	0	0	0	0	0	0	0	0;
	562	700	0	1000000000	-1000000000	1.0507	100	1	1000000000	-1000000000	0	0	0	0	0	0	0	0	0	0	0;
	563	553	0	1000000000	-1000000000	1.0145	100	1	1000000000	-1000000000	0	0	0	0	0	0	0	0	0	0	0;
	565	0	0	1000000000	-1000000000	0.9945000000000001	100	1	1000000000	-1000000000	0	0	0	0	0	0	0	0	0	0	0;
	590	0	0	1000000000	-1000000000	1	100	1	1000000000	-1000000000	0	0	0	0	0	0	0	0	0	0	0;
	592	0	0	1000000000	-1000000000	1	100	1	1000000000	-1000000000	0	0	0	0	0	0	0	0	0	0	0;
	593	50	0	1000000000	-1000000000	1	100	1	1000000000	-1000000000	0	0	0	0	0	0	0	0	0	0	0;
	594	8	0	1000000000	-1000000000	1	100	1	1000000000	-1000000000	0	0	0	0	0	0	0	0	0	0	0;
	605	0	0	1000000000	-1000000000	1.0153	100	1	1000000000	-1000000000	0	0	0	0	0	0	0	0	0	0	0;
	607	0	0	1000000000	-1000000000	1.0205	100	1	1000000000	-1000000000	0	0	0	0	0	0	0	0	0	0	0;
	616	0	0	1000000000	-1000000000	1.001	100	1	1000000000	-1000000000	0	0	0	0	0	0	0	0	0	0	0;
	652	0	0	1000000000	-1000000000	0.9582999999999999	100	1	1000000000	-1000000000	0	0	0	0	0	0	0	0	0	0	0;
	660	0	0	1000000000	-1000000000	0.9632000000000001	100	1	1000000000	-1000000000	0	0	0	0	0	0	0	0	0	0	0;
	666	375	0	1000000000	-1000000000	1.025	100	1	1000000000	-1000000000	0	0	0	0	0	0	0	0	0	0	0;
	673	155	0	1000000000	-1000000000	1.052	100	1	1000000000	-1000000000	0	0	0	0	0	0	0	0	0	0	0;
	674	290	0	1000000000	-1000000000	1.052	100	1	1000000000	-1000000000	0	0	0	0	0	0	0	0	0	0	0;
	677	68	0	1000000000	-1000000000	1	100	1	1000000000	-1000000000	0	0	0	0	0	0	0	0	0	0	0;
	685	117	0	1000000000	-1000000000	0.99	100	1	1000000000	-1000000000	0	0	0	0	0	0	0	0	0	0	0;
	695	1930	0	1000000000	-1000000000	1.0435	100	1	1000000000	-1000000000	0	0	0	0	0	0	0	0	0	0	0;
	700	240	0	1000000000	-1000000000	1.0233	100	1	1000000000	-1000000000	0	0	0	0	0	0	0	0	0	0	0;
	701	0	0	1000000000	-1000000000	1.0103	100	1	1000000000	-1000000000	0	0	0	0	0	0	0	0	0	0	0;
	714	0	0	1000000000	-1000000000	1.055	100	1	1000000000	-1000000000	0	0	0	0	0	0	0	0	0	0	0;
	717	281	0	1000000000	-1000000000	1.051	100	1	1000000000	-1000000000	0	0	0	0	0	0	0	0	0	0	0;
	719	696	0	1000000000	-1000000000	1.0435	100	1	1000000000	-1000000000	0	0	0	0	0	0	0	0	0	0	0;
	722	84	0	1000000000	-1000000000	1.0528	100	1	1000000000	-1000000000	0	0	0	0	0	0	0	0	0	0	0;
	723	217	0	1000000000	-1000000000	1.0528	100	1	1000000000	-1000000000	0	0	0	0	0	0	0	0	0	0	0;
	725	103	0	1000000000	-1000000000	1.0735	100	1	1000000000	-1000000000	0	0	0	0	0	0	0	0	0	0	0;
	728	372	0	1000000000	-1000000000	1.0535	100	1	1000000000	-1000000000	0	0	0	0	0	0	0	0	0	0	0;
	729	216	0	1000000000	-1000000000	1.0435	100	1	1000000000	-1000000000	0	0	0	0	0	0	0	0	0	0	0;
	732	0	0	1000000000	-1000000000	0.9630000000000001	100	1	1000000000	-1000000000	0	0	0	0	0	0	0	0	0	0	0;
	746	205	0	1000000000	-1000000000	0.9289999999999999	100	1	1000000000	-1000000000	0	0	0	0	0	0	0	0	0	0	0;
	747	0	0	1000000000	-1000000000	0.9829	100	1	1000000000	-1000000000	0	0	0	0	0	0	0	0	0	0	0;
	752	228	0	1000000000	-1000000000	1.0522	100	1	1000000000	-1000000000	0	0	0	0	0	0	0	0	0	0	0;
	753	84	0	1000000000	-1000000000	1.0077	100	1	1000000000	-1000000000	0	0	0	0	0	0	0	0	0	0	0;
	761	200	0	1000000000	-1000000000	1.0522	100	1	1000000000	-1000000000	0	0	0	0	0	0	0	0	0	0	0;
	762	1200	0	1000000000	-1000000000	1.065	100	1	1000000000	-1000000000	0	0	0	0	0	0	0	0	0	0	0;
	763	1200	0	1000000000	-1000000000	1.065	100	1	1000000000	-1000000000	0	0	0	0	0	0	0	0	0	0	0;
	766	475	0	1000000000	-1000000000	1.0551	100	1	1000000000	-1000000000	0	0	0	0	0	0	0	0	0	0	0;
	767	1973	0	1000000000	-1000000000	1.0435	100	1	1000000000	-1000000000	0	0	0	0	0	0	0	0	0	0	0;
	774	424	0	1000000000	-1000000000	1.015	100	1	1000000000	-1000000000	0	0	0	0	0	0	0	0	0	0	0;
	789	272	0	1000000000	-1000000000	1.01	100	1	1000000000	-1000000000	0	0	0	0	0	0	0	0	0	0	0;
	796	100	0	1000000000	-1000000000	1.008	100	1	1000000000	-1000000000	0	0	0	0	0	0	0	0	0	0	0;
	797	450	0	1000000000	-1000000000	1	100	1	1000000000	-1000000000	0	0	0	0	0	0	0	0	0	0	0;
	798	250	0	1000000000	-1000000000	1.05	100	1	1000000000	-1000000000	0	0	0	0	0	0	0	0	0	0	0;
	803	303	0	1000000000	-1000000000	1	100	1	1000000000	-1000000000	0	0	0	0	0	0	0	0	0	0	0;
	806	345	0	1000000000	-1000000000	1.04	100	1	1000000000	-1000000000	0	0	0	0	0	0	0	0	0	0	0;
	809	300	0	1000000000	-1000000000	1	100	1	1000000000	-1000000000	0	0	0	0	0	0	0	0	0	0	0;
	812	600	0	1000000000	-1000000000	1.0165	100	1	1000000000	-1000000000	0	0	0	0	0	0	0	0	0	0	0;
	814	250	0	1000000000	-1000000000	1.01	100	1	1000000000	-1000000000	0	0	0	0	0	0	0	0	0	0	0;
	815	550	0	1000000000	-1000000000	1	100	1	1000000000	-1000000000	0	0	0	0	0	0	0	0	0	0	0;
	817	575.4299999999999	0	1000000000	-1000000000	1.05	100	1	1000000000	-1000000000	0	0	0	0	0	0	0	0	0	0	0;
	818	170	0	1000000000	-1000000000	0.993	100	1	1000000000	-1000000000	0	0	0	0	0	0	0	0	0	0	0;
	819	84	0	1000000000	-1000000000	1.01	100	1	1000000000	-1000000000	0	0	0	0	0	0	0	0	0	0	0;
	844	467	0	1000000000	-1000000000	1.0507	100	1	1000000000	-1000000000	0	0	0	0	0	0	0	0	0	0	0;
	845	623	0	1000000000	-1000000000	1.0507	100	1	1000000000	-1000000000	0	0	0	0	0	0	0	0	0	0	0;
	846	1210	0	1000000000	-1000000000	1.0323	100	1	1000000000	-1000000000	0	0	0	0	0	0	0	0	0	0	0;
	847	234	0	1000000000	-1000000000	1.0145	100	1	1000000000	-1000000000	0	0	0	0	0	0	0	0	0	0	0;
	848	372	0	1000000000	-1000000000	1.0507	100	1	1000000000	-1000000000	0	0	0	0	0	0	0	0	0	0	0;
	849	330	0	1000000000	-1000000000	1.0507	100	1	1000000000	-1000000000	0	0	0	0	0	0	0	0	0	0	0;
	850	185	0	1000000000	-1000000000	1.0507	100	1	1000000000	-1000000000	0	0	0	0	0	0	0	0	0	0	0;
	851	409.9999999999999	0	1000000000	-1000000000	1.029	100	1	1000000000	-1000000000	0	0	0	0	0	0	0	0	0	0	0;
	852	500	0	1000000000	-1000000000	1.05	100	1	1000000000	-1000000000	0	0	0	0	0	0	0	0	0	0	0;
	853	37	0	1000000000	-1000000000	1.0145	100	1	1000000000	-1000000000	0	0	0	0	0	0	0	0	0	0	0;
	257	0	0	1000000000	-1000000000	1.0507	100	1	1000000000	-1000000000	0	0	0	0	0	0	0	0	0	0	0;
	854	45	0	1000000000	-1000000000	0.9966999999999999	100	1	1000000000	-1000000000	0	0	0	0	0	0	0	0	0	0	0;
	855	165	0	1000000000	-1000000000	1.0212	100	1	1000000000	-1000000000	0	0	0	0	0	0	0	0	0	0	0;
	856	400	0	1000000000	-1000000000	1.0145	100	1	1000000000	-1000000000	0	0	0	0	0	0	0	0	0	0	0;
	857	400	0	1000000000	-1000000000	1.0017	100	1	1000000000	-1000000000	0	0	0	0	0	0	0	0	0	0	0;
	858	116	0	1000000000	-1000000000	0.9893	100	1	1000000000	-1000000000	0	0	0	0	0	0	0	0	0	0	0;
	859	1292	0	1000000000	-1000000000	1.0507	100	1	1000000000	-1000000000	0	0	0	0	0	0	0	0	0	0	0;
...
];

mpc.branch = [
	266	270	0.0008	0.00348	0	0	0	0	0	0	1	-360	360;
	271	272	0.05558	0.24666	0	0	0	0	0	0	1	-360	360;
	271	268	0.11118	0.49332	0	0	0	0	0	0	1	-360	360;
	271	268	0.11118	0.49332	0	0	0	0	0	0	1	-360	360;
	273	267	0.07622	0.43286	0	0	0	0	0	0	1	-360	360;
	273	267	0.07622	0.43286	0	0	0	0	0	0	1	-360	360;
	267	274	0.0537	0.07026	0	0	0	0	0	0	1	-360	360;
	274	276	1.1068	0.95278	0	0	0	0	0	0	1	-360	360;
	272	268	0.0558	0.24666	0	0	0	0	0	0	1	-360	360;
	268	291	0.07378	0.06351999999999999	0	0	0	0	0	0	1	-360	360;
	291	269	0.03832	0.02894	0	0	0	0	0	0	1	-360	360;
	273	299	0.23552	0.99036	0	0	0	0	0	0	1	-360	360;
	1	5	0.001	0.006	0	0	0	0	0	0	1	-360	360;
	2	6	0.001	0.008999999999999999	0	0	0	0	0	0	1	-360	360;
	2	8	0.006	0.027	0.054	0	0	0	0	0	1	-360	360;
	3	7	0	0.003	0	0	0	0	0	0	1	-360	360;
	3	18	0.008	0.06900000000000001	0.139	0	0	0	0	0	1	-360	360;
	3	129	0.001	0.007	0	0	0	0	0	0	1	-360	360;
	4	16	0.002	0.019	1.127	0	0	0	0	0	1	-360	360;
	5	9	0.006	0.029	0.018	0	0	0	0	0	1	-360	360;
	7	12	0.001	0.008999999999999999	0.07000000000000001	0	0	0	0	0	1	-360	360;
	7	110	0.001	0.007	0.014	0	0	0	0	0	1	-360	360;
	8	11	0.013	0.0595	0.033	0	0	0	0	0	1	-360	360;
	8	14	0.013	0.042	0.081	0	0	0	0	0	1	-360	360;
	9	11	0.006	0.027	0.013	0	0	0	0	0	1	-360	360;
	11	13	0.008	0.034	0.018	0	0	0	0	0	1	-360	360;
	12	20	0.002	0.015	0.118	0	0	0	0	0	1	-360	360;
	13	19	0.006	0.034	0.016	0	0	0	0	0	1	-360	360;
	14	15	0.014	0.042	0.097	0	0	0	0	0	1	-360	360;
	15	31	0.065	0.248	0.121	0	0	0	0	0	1	-360	360;
	15	74	0.099	0.248	0.035	0	0	0	0	0	1	-360	360;
	15	75	0.096	0.363	0.048	0	0	0	0	0	1	-360	360;
	16	36	0.002	0.022	1.28	0	0	0	0	0	1	-360	360;
	18	20	0.002	0.018	0.036	0	0	0	0	0	1	-360	360;
	18	72	0.013	0.08	0.151	0	0	0	0	0	1	-360	360;
	19	21	0.016	0.033	0.015	0	0	0	0	0	1	-360	360;
	19	26	0.06900000000000001	0.186	0.098	0	0	0	0	0	1	-360	360;
	20	23	0.004	0.034	0.28	0	0	0	0	0	1	-360	360;
	21	22	0.052	0.111	0.05	0	0	0	0	0	1	-360	360;
	22	24	0.019	0.039	0.018	0	0	0	0	0	1	-360	360;
	23	231	0.007	0.068	0.134	0	0	0	0	0	1	-360	360;
	24	25	0.036	0.07099999999999999	0.034	0	0	0	0	0	1	-360	360;
	25	26	0.045	0.12	0.065	0	0	0	0	0	1	-360	360;
	25	232	0.043	0.13	0.014	0	0	0	0	0	1	-360	360;
	27	32	0.0025	0.012	0.013	0	0	0	0	0	1	-360	360;
	27	34	0.006	0.029	0.02	0	0	0	0	0	1	-360	360;
	27	35	0.007	0.043	0.026	0	0	0	0	0	1	-360	360;
	28	36	0.001	0.008	0.042	0	0	0	0	0	1	-360	360;
	29	60	0.012	0.06	0.008	0	0	0	0	0	1	-360	360;
	29	63	0.006	0.014	0.002	0	0	0	0	0	1	-360	360;
	29	64	0.01	0.029	0.003	0	0	0	0	0	1	-360	360;
	30	73	0.004	0.027	0.043	0	0	0	0	0	1	-360	360;
	31	32	0.008	0.047	0.008	0	0	0	0	0	1	-360	360;
	31	34	0.022	0.064	0.007	0	0	0	0	0	1	-360	360;
	31	35	0.01	0.036	0.02	0	0	0	0	0	1	-360	360;
	31	43	0.017	0.081	0.048	0	0	0	0	0	1	-360	360;
	31	74	0.102	0.254	0.033	0	0	0	0	0	1	-360	360;
	31	75	0.047	0.127	0.016	0	0	0	0	0	1	-360	360;
	32	35	0.008	0.037	0.02	0	0	0	0	0	1	-360	360;
	32	37	0.032	0.08699999999999999	0.04	0	0	0	0	0	1	-360	360;
	33	36	0.0005999999999999999	0.0064	0.404	0	0	0	0	0	1	-360	360;
	34	42	0.026	0.154	0.022	0	0	0	0	0	1	-360	360;
	35	43	0.065	0.191	0.02	0	0	0	0	0	1	-360	360;
	35	44	0.031	0.089	0.036	0	0	0	0	0	1	-360	360;
	36	40	0.002	0.014	0.806	0	0	0	0	0	1	-360	360;
	37	38	0.026	0.07199999999999999	0.035	0	0	0	0	0	1	-360	360;
	37	42	0.095	0.262	0.032	0	0	0	0	0	1	-360	360;
	37	46	0.013	0.039	0.016	0	0	0	0	0	1	-360	360;
	38	41	0.027	0.08400000000000001	0.039	0	0	0	0	0	1	-360	360;
	38	47	0.028	0.08400000000000001	0.037	0	0	0	0	0	1	-360	360;
	39	52	0.007	0.041	0.312	0	0	0	0	0	1	-360	360;
	39	62	0.008999999999999999	0.054	0.411	0	0	0	0	0	1	-360	360;
	40	68	0.005	0.042	0.6899999999999999	0	0	0	0	0	1	-360	360;
	41	61	0.052	0.145	0.073	0	0	0	0	0	1	-360	360;
	41	92	0.043	0.118	0.013	0	0	0	0	0	1	-360	360;
	42	87	0.025	0.062	0.007	0	0	0	0	0	1	-360	360;
	43	44	0.031	0.094	0.043	0	0	0	0	0	1	-360	360;
	44	45	0.037	0.109	0.049	0	0	0	0	0	1	-360	360;
	45	48	0.027	0.08	0.036	0	0	0	0	0	1	-360	360;
	46	47	0.025	0.073	0.035	0	0	0	0	0	1	-360	360;
	47	48	0.035	0.103	0.047	0	0	0	0	0	1	-360	360;
	48	49	0.065	0.169	0.082	0	0	0	0	0	1	-360	360;
	49	50	0.046	0.08	0.036	0	0	0	0	0	1	-360	360;
	49	55	0.159	0.537	0.07099999999999999	0	0	0	0	0	1	-360	360;
	50	51	0.008999999999999999	0.026	0.005	0	0	0	0	0	1	-360	360;
	51	53	0.002	0.013	0.015	0	0	0	0	0	1	-360	360;
	52	54	0.008999999999999999	0.065	0.485	0	0	0	0	0	1	-360	360;
	54	56	0.016	0.105	0.203	0	0	0	0	0	1	-360	360;
	54	123	0.001	0.007	0.013	0	0	0	0	0	1	-360	360;
	55	236	0.0265	0.172	0.026	0	0	0	0	0	1	-360	360;
	57	190	0.051	0.232	0.028	0	0	0	0	0	1	-360	360;
	57	66	0.051	0.157	0.023	0	0	0	0	0	1	-360	360;
	58	59	0.032	0.1	0.062	0	0	0	0	0	1	-360	360;
	58	237	0.02	0.1234	0.028	0	0	0	0	0	1	-360	360;
	59	60	0.036	0.131	0.068	0	0	0	0	0	1	-360	360;
	59	61	0.034	0.099	0.047	0	0	0	0	0	1	-360	360;
	60	64	0.018	0.08699999999999999	0.011	0	0	0	0	0	1	-360	360;
	60	238	0.0256	0.193	0	0	0	0	0	0	1	-360	360;
	61	63	0.021	0.057	0.03	0	0	0	0	0	1	-360	360;
	61	66	0.018	0.052	0.018	0	0	0	0	0	1	-360	360;
	62	73	0.004	0.027	0.05	0	0	0	0	0	1	-360	360;
	62	240	0.0286	0.2013	0.379	0	0	0	0	0	1	-360	360;
	63	64	0.016	0.043	0.004	0	0	0	0	0	1	-360	360;
	64	65	0.001	0.006	0.007	0	0	0	0	0	1	-360	360;
	64	67	0.014	0.07000000000000001	0.038	0	0	0	0	0	1	-360	360;
	64	239	0.0891	0.2676	0.029	0	0	0	0	0	1	-360	360;
	64	241	0.07820000000000001	0.2127	0.022	0	0	0	0	0	1	-360	360;
	65	66	0.006	0.022	0.011	0	0	0	0	0	1	-360	360;
	65	69	0	0.036	0	0	0	0	0	0	1	-360	360;
	66	190	0.099	0.375	0.051	0	0	0	0	0	1	-360	360;
	67	190	0.022	0.107	0.058	0	0	0	0	0	1	-360	360;
	68	173	0.0035	0.033	0.53	0	0	0	0	0	1	-360	360;
	68	174	0.0035	0.033	0.53	0	0	0	0	0	1	-360	360;
	70	71	0.008	0.064	0.128	0	0	0	0	0	1	-360	360;
	71	72	0.012	0.093	0.183	0	0	0	0	0	1	-360	360;
	71	234	0.006	0.048	0.092	0	0	0	0	0	1	-360	360;
	74	76	0.047	0.119	0.014	0	0	0	0	0	1	-360	360;
	75	77	0.032	0.174	0.024	0	0	0	0	0	1	-360	360;
	76	78	0.1	0.253	0.031	0	0	0	0	0	1	-360	360;
	76	79	0.022	0.077	0.039	0	0	0	0	0	1	-360	360;
	77	84	0.019	0.144	0.017	0	0	0	0	0	1	-360	360;
	77	86	0.017	0.092	0.012	0	0	0	0	0	1	-360	360;
	78	79	0.278	0.427	0.043	0	0	0	0	0	1	-360	360;
	79	82	0.022	0.053	0.007	0	0	0	0	0	1	-360	360;
	79	83	0.038	0.092	0.012	0	0	0	0	0	1	-360	360;
	79	84	0.048	0.122	0.015	0	0	0	0	0	1	-360	360;
	80	82	0.024	0.064	0.007	0	0	0	0	0	1	-360	360;
	80	83	0.034	0.121	0.015	0	0	0	0	0	1	-360	360;
	81	87	0.053	0.135	0.017	0	0	0	0	0	1	-360	360;
	81	88	0.002	0.004	0.002	0	0	0	0	0	1	-360	360;
	81	89	0.045	0.354	0.044	0	0	0	0	0	1	-360	360;
	81	90	0.05	0.174	0.022	0	0	0	0	0	1	-360	360;
	82	83	0.016	0.038	0.004	0	0	0	0	0	1	-360	360;
	83	85	0.043	0.064	0.027	0	0	0	0	0	1	-360	360;
	84	86	0.019	0.062	0.008	0	0	0	0	0	1	-360	360;
	85	88	0.076	0.13	0.044	0	0	0	0	0	1	-360	360;
	85	233	0.044	0.124	0.015	0	0	0	0	0	1	-360	360;
	86	87	0.012	0.08799999999999999	0.011	0	0	0	0	0	1	-360	360;
	86	90	0.157	0.4	0.047	0	0	0	0	0	1	-360	360;
	88	235	0.074	0.208	0.026	0	0	0	0	0	1	-360	360;
	89	90	0.07000000000000001	0.184	0.021	0	0	0	0	0	1	-360	360;
	89	92	0.1	0.274	0.031	0	0	0	0	0	1	-360	360;
	89	93	0.109	0.393	0.036	0	0	0	0	0	1	-360	360;
	90	91	0.142	0.404	0.05	0	0	0	0	0	1	-360	360;
	91	93	0.017	0.042	0.006	0	0	0	0	0	1	-360	360;
	94	101	0.0036	0.0199	0.004	0	0	0	0	0	1	-360	360;
	95	99	0.002	0.1049	0.001	0	0	0	0	0	1	-360	360;
	96	97	0.0001	0.0018	0.017	0	0	0	0	0	1	-360	360;
	97	98	0	0.0271	0	0	0	0	0	0	1	-360	360;
	97	245	0	0.6163	0	0	0	0	0	0	1	-360	360;
	245	99	0	-0.3697	0	0	0	0	0	0	1	-360	360;
	97	100	0.0022	0.2915	0	0	0	0	0	0	1	-360	360;
	98	99	0	0.0339	0	0	0	0	0	0	1	-360	360;
	98	100	0	0.0582	0	0	0	0	0	0	1	-360	360;
	101	102	0.0808	0.2344	0.029	0	0	0	0	0	1	-360	360;
	101	104	0.0965	0.3669	0.054	0	0	0	0	0	1	-360	360;
	102	103	0.036	0.1076	0.117	0	0	0	0	0	1	-360	360;
	102	104	0.0476	0.1414	0.149	0	0	0	0	0	1	-360	360;
	104	105	0.0005999999999999999	0.0197	0	0	0	0	0	0	1	-360	360;
	106	107	0.0059	0.0577	0.095	0	0	0	0	0	1	-360	360;
	106	113	0.0049	0.0336	0.208	0	0	0	0	0	1	-360	360;
	106	147	0.0059	0.0577	0.095	0	0	0	0	0	1	-360	360;
	107	109	0.0078	0.07729999999999999	0.126	0	0	0	0	0	1	-360	360;
	107	112	0.0026	0.0193	0.03	0	0	0	0	0	1	-360	360;
	108	109	0.0076	0.0752	0.122	0	0	0	0	0	1	-360	360;
	108	112	0.0021	0.0186	0.03	0	0	0	0	0	1	-360	360;
	109	111	0.0016	0.0164	0.026	0	0	0	0	0	1	-360	360;
	109	130	0.0017	0.0165	0.026	0	0	0	0	0	1	-360	360;
	109	146	0.007900000000000001	0.0793	0.127	0	0	0	0	0	1	-360	360;
	109	147	0.0078	0.0784	0.125	0	0	0	0	0	1	-360	360;
	112	116	0.0017	0.0117	0.289	0	0	0	0	0	1	-360	360;
	112	147	0.0026	0.0193	0.03	0	0	0	0	0	1	-360	360;
	112	148	0.0021	0.0186	0.03	0	0	0	0	0	1	-360	360;
	113	114	0.0043	0.0293	0.18	0	0	0	0	0	1	-360	360;
	113	163	0.0039	0.0381	0.258	0	0	0	0	0	1	-360	360;
	114	115	0.0091	0.0623	0.385	0	0	0	0	0	1	-360	360;
	115	116	0.0125	0.089	0.54	0	0	0	0	0	1	-360	360;
	115	131	0.0056	0.039	0.953	0	0	0	0	0	1	-360	360;
	116	119	0.0015	0.0114	0.284	0	0	0	0	0	1	-360	360;
	116	160	0.0005	0.0034	0.021	0	0	0	0	0	1	-360	360;
	116	165	0.0007	0.0151	0.126	0	0	0	0	0	1	-360	360;
	116	167	0.0005	0.0034	0.021	0	0	0	0	0	1	-360	360;
	118	151	0.0562	0.2248	0.081	0	0	0	0	0	1	-360	360;
	119	120	0.012	0.08359999999999999	0.123	0	0	0	0	0	1	-360	360;
	119	121	0.0152	0.1132	0.6840000000000001	0	0	0	0	0	1	-360	360;
	119	124	0.0468	0.3369	0.519	0	0	0	0	0	1	-360	360;
	119	125	0.043	0.3031	0.463	0	0	0	0	0	1	-360	360;
	119	126	0.0489	0.3492	0.538	0	0	0	0	0	1	-360	360;
	119	161	0.0013	0.0089	0.119	0	0	0	0	0	1	-360	360;
	120	125	0.0291	0.2267	0.342	0	0	0	0	0	1	-360	360;
	121	122	0.006	0.057	0.767	0	0	0	0	0	1	-360	360;
	122	124	0.0075	0.07729999999999999	0.119	0	0	0	0	0	1	-360	360;
	122	128	0.0127	0.09089999999999999	0.135	0	0	0	0	0	1	-360	360;
	124	125	0.008500000000000001	0.0588	0.08699999999999999	0	0	0	0	0	1	-360	360;
	124	128	0.0218	0.1511	0.223	0	0	0	0	0	1	-360	360;
	125	126	0.0073	0.0504	0.074	0	0	0	0	0	1	-360	360;
	131	132	0.0137	0.09569999999999999	0.141	0	0	0	0	0	1	-360	360;
	132	140	0.0055	0.0288	0.19	0	0	0	0	0	1	-360	360;
	133	135	0.1746	0.3161	0.04	0	0	0	0	0	1	-360	360;
	133	162	0.0804	0.3054	0.045	0	0	0	0	0	1	-360	360;
...
];
